/*--------------------------------*- C++ -*----------------------------------*\
  =========                 |
  \\      /  F ield         | OpenFOAM: The Open Source CFD Toolbox
   \\    /   O peration     | Website:  https://openfoam.org
    \\  /    A nd           | Version:  6
     \\/     M anipulation  |
\*---------------------------------------------------------------------------*/
FoamFile
{
    version     2.0;
    format      ascii;
    class       dictionary;
    location    "constant";
    object      fvOptions;
}
// * * * * * * * * * * * * * * * * * * * * * * * * * * * * * * * * * * * * * //


COsource
{
    type            	scalarSemiImplicitSource;
    active yes;
    selectionMode cellSet;
    cellSet COsource;
    volumeMode specific;
    injectionRateSuSp
    {
       T   (9.69e-6 0);
    }
}

// ************************************************************************* //
