/*--------------------------------*- C++ -*----------------------------------*\
| =========                 |                                                 |
| \\      /  F ield         | OpenFOAM: The Open Source CFD Toolbox           |
|  \\    /   O peration     | Version:  1.6                                   |
|   \\  /    A nd           | Web:      http://www.OpenFOAM.org               |
|    \\/     M anipulation  |                                                 |
\*---------------------------------------------------------------------------*/
FoamFile
{
    version     2.0;
    format      ascii;
    class       dictionary;
    object      blockMeshDict;
}
// * * * * * * * * * * * * * * * * * * * * * * * * * * * * * * * * * * * * * //

convertToMeters 1;

vertices        
(
    (0 0 0)
    (4 0 0)
    (4 4 0)
    (0 4 0)
    (0 0 0.01)
    (4 0 0.01)
    (4 4 0.01)
    (0 4 0.01)
);

blocks          
(
    hex (0 1 2 3 4 5 6 7) (20 20 1) simpleGrading (1 1 1)
);

edges           
(
);

boundary         
(
    topWall
    {
        type    wall;
        faces
    (
        (3 7 6 2)
    );
    }
    leftWall 
    {
        type    wall;
        faces
    (
        (0 4 7 3)
    );
    }

	rightWall
    {
        type    wall;
        faces
	(
        (2 6 5 1)
    );
    }
	lowerWall
    {
        type    wall;
        faces
	(
        (1 5 4 0)
    );
    }
    frontAndBack 
    {
        type    empty;
        faces
    (
        (0 3 2 1)
        (4 5 6 7)
    );
    }
    /*wand
    {
        type    wall;
        faces
    (
	(8 9 10 11)
    );
    }*/
);

mergePatchPairs 
(
);

// ************************************************************************* //
