/*--------------------------------*- C++ -*----------------------------------*\
  =========                 |
  \\      /  F ield         | OpenFOAM: The Open Source CFD Toolbox
   \\    /   O peration     | Website:  https://openfoam.org
    \\  /    A nd           | Version:  6
     \\/     M anipulation  |
\*---------------------------------------------------------------------------*/
FoamFile
{
    version     2.0;
    format      ascii;
    class       dictionary;
    location    "constant";
    object      fvOptions;
}
// * * * * * * * * * * * * * * * * * * * * * * * * * * * * * * * * * * * * * //


energySource
{
    type            	scalarSemiImplicitSource;
    active yes;
    selectionMode cellSet;
    cellSet sourceWall;
    volumeMode specific;
    injectionRateSuSp
    {
       T   (0.81944 0);
    }// To be completed
}

// ************************************************************************* //
